demo/logging/Texas2k_demo.raw
0,   100.00, 33, 0, 0, 60.00     / PSS(R)E 33 RAW created by rawd33  FRI, APR 18 2025  14:38
TEXAS2K_SERIES24_CASE5_2024HIGHRENEWABLES
THIS IS A SYNTHETIC POWER SYSTEM MODEL THAT DOES NOT REPRESE
  1001,'ODESSA 2 0  ', 115.0000,1,   1,   9,   1,0.96930,  14.4837,1.10000,0.90000,1.10000,0.90000
  1002,'PRESIDIO 2 0', 115.0000,1,   1,   9,   1,1.02905,  41.1350,1.10000,0.90000,1.10000,0.90000
  1003,'O DONNELL ~1', 115.0000,1,   1,   9,   1,0.99665,  23.7530,1.10000,0.90000,1.10000,0.90000
  1004,'O DONNELL ~2', 230.0000,2,   1,   9,   1,1.01000,  16.8511,1.10000,0.90000,1.10000,0.90000
  1005,'BIG SPRING~8', 115.0000,1,   1,   9,   1,0.99809,  30.3093,1.10000,0.90000,1.10000,0.90000
  1006,'BIG SPRING~9',  13.8000,2,   1,   9,   1,1.00000,  31.3925,1.10000,0.90000,1.10000,0.90000
  1007,'VAN HORN 0  ', 115.0000,2,   1,   9,   1,1.02996,  43.7432,1.10000,0.90000,1.10000,0.90000
  1008,'IRAAN 2 0   ', 115.0000,1,   1,   9,   1,1.00938,  29.9761,1.10000,0.90000,1.10000,0.90000
  1009,'IRAAN 2 1   ',  13.8000,2,   1,   9,   1,1.00475,  31.6468,1.10000,0.90000,1.10000,0.90000
  1010,'PRESIDIO 1 0', 115.0000,1,   1,   9,   1,1.03000,  40.8908,1.10000,0.90000,1.10000,0.90000
  1011,'PRESIDIO 1 1',  22.0000,2,   1,   9,   1,1.03022,  42.6438,1.10000,0.90000,1.10000,0.90000
  1012,'SANDERSON 0 ', 115.0000,1,   1,   9,   1,1.02683,  16.6280,1.10000,0.90000,1.10000,0.90000
  1013,'MONAHANS 2 0', 115.0000,1,   1,   9,   1,0.99492,  28.8125,1.10000,0.90000,1.10000,0.90000
  1014,'GRANDFALLS 0', 115.0000,1,   1,   9,   1,0.99966,  30.1684,1.10000,0.90000,1.10000,0.90000
  1015,'MARFA 0     ', 115.0000,1,   1,   9,   1,1.03279,  41.7663,1.10000,0.90000,1.10000,0.90000
  1016,'GARDEN CIT~1', 115.0000,2,   1,   9,   1,1.00000,  36.0513,1.10000,0.90000,1.10000,0.90000
  1017,'ODESSA 4 0  ', 115.0000,1,   1,   9,   1,0.97721,  20.3716,1.10000,0.90000,1.10000,0.90000
  1018,'NOTREES 0   ', 115.0000,1,   1,   9,   1,0.98871,  21.7870,1.10000,0.90000,1.10000,0.90000
  1019,'MIDLAND 4 0 ', 115.0000,1,   1,   9,   1,0.98454,  17.2306,1.10000,0.90000,1.10000,0.90000
  1020,'BIG SPRING~1', 115.0000,1,   1,   9,   1,1.00017,  24.1269,1.10000,0.90000,1.10000,0.90000
  1021,'BIG SPRING~2',  13.8000,2,   1,   9,   1,1.00000,  27.4791,1.10000,0.90000,1.10000,0.90000
  1022,'O DONNELL ~3', 115.0000,2,   1,   9,   1,1.00136,  24.7715,1.10000,0.90000,1.10000,0.90000
  1023,'O DONNELL ~4',  13.8000,2,   1,   9,   1,1.01000,  31.9028,1.10000,0.90000,1.10000,0.90000
  1024,'ODESSA 6 0  ', 115.0000,1,   1,   9,   1,0.99311,  22.9730,1.10000,0.90000,1.10000,0.90000
  1025,'BIG SPRIN~14', 115.0000,1,   1,   9,   1,1.00013,  25.6633,1.10000,0.90000,1.10000,0.90000
  1026,'BIG SPRIN~15',  13.8000,2,   1,   9,   1,1.00000,  30.4821,1.10000,0.90000,1.10000,0.90000
  1027,'MIDLAND 2 0 ', 115.0000,2,   1,   9,   1,1.01052,  22.5244,1.10000,0.90000,1.10000,0.90000
  1028,'COAHOMA 0   ', 115.0000,2,   1,   9,   1,1.00000,  21.6556,1.10000,0.90000,1.10000,0.90000
  1029,'MIDLAND 3 0 ', 115.0000,2,   1,   9,   1,1.00000,  23.4626,1.10000,0.90000,1.10000,0.90000
  1030,'ALPINE 0    ', 115.0000,2,   1,   9,   1,1.02034,  37.1963,1.10000,0.90000,1.10000,0.90000
  1031,'FORT DAVIS 0', 115.0000,1,   1,   9,   1,1.01067,  37.6797,1.10000,0.90000,1.10000,0.90000
  1032,'MCCAMEY 1 0 ', 115.0000,2,   1,   9,   1,0.99274,  28.2359,1.10000,0.90000,1.10000,0.90000
  1033,'MCCAMEY 1 1 ', 230.0000,2,   1,   9,   1,1.00000,  24.7594,1.10000,0.90000,1.10000,0.90000
  1034,'BIG SPRING~6', 115.0000,1,   1,   9,   1,1.00098,  33.1026,1.10000,0.90000,1.10000,0.90000
  1035,'BIG SPRING~7',  13.8000,2,   1,   9,   1,1.00000,  34.7502,1.10000,0.90000,1.10000,0.90000
  1036,'CRANE 0     ', 115.0000,2,   1,   9,   1,0.99715,  32.1945,1.10000,0.90000,1.10000,0.90000
  1037,'ODESSA 5 0  ', 115.0000,2,   1,   9,   1,0.97193,  18.7035,1.10000,0.90000,1.10000,0.90000
  1038,'FORT STOCK~1', 115.0000,1,   1,   9,   1,1.01095,  33.3323,1.10000,0.90000,1.10000,0.90000
  1039,'FORT STOCK~2',  22.0000,2,   1,   9,   1,1.00182,  36.0337,1.10000,0.90000,1.10000,0.90000
  1040,'ANDREWS 0   ', 115.0000,2,   1,   9,   1,1.00000,  25.3129,1.10000,0.90000,1.10000,0.90000
  1041,'FORSAN 0    ', 115.0000,1,   1,   9,   1,1.00365,  32.3619,1.10000,0.90000,1.10000,0.90000
  1042,'FORSAN 1    ',  13.8000,1,   1,   9,   1,1.00365,  32.3619,1.10000,0.90000,1.10000,0.90000
  1043,'FORSAN 2    ',  13.8000,2,   1,   9,   1,1.00000,  33.9841,1.10000,0.90000,1.10000,0.90000
  1044,'BIG LAKE 0  ', 115.0000,2,   1,   9,   1,1.00000,  13.8890,1.10000,0.90000,1.10000,0.90000
  1045,'MIDLAND 5 0 ', 115.0000,1,   1,   9,   1,0.97475,  16.8601,1.10000,0.90000,1.10000,0.90000
  1046,'OZONA 0     ', 115.0000,2,   1,   9,   1,1.00000,  23.6645,1.10000,0.90000,1.10000,0.90000
  1047,'MONAHANS 1 0', 115.0000,1,   1,   9,   1,0.99187,  25.2394,1.10000,0.90000,1.10000,0.90000
  1048,'MONAHANS 1 1',  18.0000,1,   1,   9,   1,0.99187,  25.2394,1.10000,0.90000,1.10000,0.90000
  1049,'MONAHANS 1 2',  18.0000,1,   1,   9,   1,0.99187,  25.2394,1.10000,0.90000,1.10000,0.90000
  1050,'MONAHANS 1 3',  18.0000,2,   1,   9,   1,1.00000,  26.4209,1.10000,0.90000,1.10000,0.90000
  1051,'MONAHANS 1 4',  18.0000,1,   1,   9,   1,0.99187,  25.2394,1.10000,0.90000,1.10000,0.90000
  1052,'MONAHANS 1 5',  18.0000,1,   1,   9,   1,0.99187,  25.2394,1.10000,0.90000,1.10000,0.90000
  1053,'MONAHANS 1 6', 230.0000,1,   1,   9,   1,0.99622,  22.2687,1.10000,0.90000,1.10000,0.90000
  1054,'STANTON 0   ', 115.0000,1,   1,   9,   1,1.00922,  26.7684,1.10000,0.90000,1.10000,0.90000
  1055,'ODONNELL 0  ', 115.0000,2,   1,   9,   1,1.00000,  24.8281,1.10000,0.90000,1.10000,0.90000
  1056,'LENORAH 0   ', 115.0000,1,   1,   9,   1,1.02169,  25.7737,1.10000,0.90000,1.10000,0.90000
  1057,'LENORAH 1   ',  18.0000,1,   1,   9,   1,1.02169,  25.7737,1.10000,0.90000,1.10000,0.90000
  1058,'IRAAN 3 0   ', 115.0000,1,   1,   9,   1,1.01770,  28.0110,1.10000,0.90000,1.10000,0.90000
  1059,'IRAAN 3 1   ',  22.0000,1,   1,   9,   1,1.01770,  28.0110,1.10000,0.90000,1.10000,0.90000
  1060,'IRAAN 3 2   ',  22.0000,1,   1,   9,   1,1.01770,  28.0110,1.10000,0.90000,1.10000,0.90000
  1061,'BIG SPRIN~10', 115.0000,2,   1,   9,   1,1.00000,  28.9366,1.10000,0.90000,1.10000,0.90000
  1062,'BIG SPRIN~11',  13.8000,2,   1,   9,   1,1.01000,  31.0151,1.10000,0.90000,1.10000,0.90000
  1063,'BIG SPRIN~12',  13.8000,2,   1,   9,   1,1.01000,  30.9768,1.10000,0.90000,1.10000,0.90000
  1064,'ODESSA 3 0  ', 115.0000,1,   1,   9,   1,0.96546,  14.8410,1.10000,0.90000,1.10000,0.90000
  1065,'BIG SPRING~4', 115.0000,1,   1,   9,   1,1.00571,  32.5588,1.10000,0.90000,1.10000,0.90000
  1066,'BIG SPRING~5',  13.8000,2,   1,   9,   1,1.00000,  36.3255,1.10000,0.90000,1.10000,0.90000
  1067,'BIG SPRIN~13', 115.0000,1,   1,   9,   1,1.00143,  31.7622,1.10000,0.90000,1.10000,0.90000
  1068,'MIDLAND 1 0 ', 115.0000,1,   1,   9,   1,0.98973,  34.6461,1.10000,0.90000,1.10000,0.90000
  1069,'IRAAN 1 0   ', 115.0000,1,   1,   9,   1,1.01620,  30.4748,1.10000,0.90000,1.10000,0.90000
  1070,'IRAAN 1 1   ',  13.8000,2,   1,   9,   1,1.02877,  32.7567,1.10000,0.90000,1.10000,0.90000
  1071,'ODESSA 1 0  ', 115.0000,1,   1,   9,   1,0.97322,  14.2831,1.10000,0.90000,1.10000,0.90000
  1072,'ODESSA 1 1  ',  18.0000,2,   1,   9,   1,1.01000,  16.0127,1.10000,0.90000,1.10000,0.90000
  1073,'ODESSA 1 2  ',  18.0000,2,   1,   9,   1,1.01000,  17.3065,1.10000,0.90000,1.10000,0.90000
  1074,'ODESSA 1 3  ',  18.0000,1,   1,   9,   1,0.97322,  14.2831,1.10000,0.90000,1.10000,0.90000
  1075,'ODESSA 1 4  ',  18.0000,1,   1,   9,   1,0.97322,  14.2831,1.10000,0.90000,1.10000,0.90000
  1076,'ODESSA 1 5  ',  18.0000,1,   1,   9,   1,0.97322,  14.2831,1.10000,0.90000,1.10000,0.90000
  1077,'ODESSA 1 6  ',  18.0000,1,   1,   9,   1,0.97322,  14.2831,1.10000,0.90000,1.10000,0.90000
  1078,'ODESSA 1 7  ',  18.0000,1,   1,   9,   1,0.97322,  14.2831,1.10000,0.90000,1.10000,0.90000
  1079,'ODESSA 1 8  ', 500.0000,1,   1,   9,   1,0.99792,  -3.0814,1.10000,0.90000,1.10000,0.90000
  1080,'ODESSA 1 9  ',  18.0000,1,   1,   9,   1,0.97322,  14.2831,1.10000,0.90000,1.10000,0.90000
  1081,'ODESSA 1 10 ', 230.0000,1,   1,   9,   1,0.99724,  20.2412,1.10000,0.90000,1.10000,0.90000
  1082,'FORT STOCK~3', 115.0000,2,   1,   9,   1,1.01323,  33.4145,1.10000,0.90000,1.10000,0.90000
  1083,'FORT STOCK~4', 115.0000,2,   1,   9,   1,1.01384,  36.2335,1.10000,0.90000,1.10000,0.90000
  1084,'BIG SPRING~3', 115.0000,2,   1,   9,   1,1.00317,  22.5582,1.10000,0.90000,1.10000,0.90000
  1085,'KERMIT 0    ', 115.0000,2,   1,   9,   1,1.00000,  27.9362,1.10000,0.90000,1.10000,0.90000
  1086,'PECOS 0     ', 115.0000,2,   1,   9,   1,1.01849,  28.4868,1.10000,0.90000,1.10000,0.90000
  1087,'SHEFFIELD 0 ', 115.0000,1,   1,   9,   1,1.02787,  23.0199,1.10000,0.90000,1.10000,0.90000
  1088,'MCCAMEY 2 0 ', 115.0000,2,   1,   9,   1,1.00000,  35.1879,1.10000,0.90000,1.10000,0.90000
  1089,'LAMESA 0    ', 115.0000,2,   1,   9,   1,1.00000,  30.1548,1.10000,0.90000,1.10000,0.90000
  1090,'GOLDSMITH 0 ', 115.0000,2,   1,   9,   1,1.00366,  24.4165,1.10000,0.90000,1.10000,0.90000
  1091,'RALLS 2 0   ', 161.0000,1,   1,   9,   1,0.98182,  23.9420,1.10000,0.90000,1.10000,0.90000
  2001,'PARIS 3 0   ', 161.0000,1,   2,  11,   1,1.02737, -29.0439,1.10000,0.90000,1.10000,0.90000
  2002,'SAVOY 0     ', 500.0000,1,   2,  11,   1,1.02990, -28.3747,1.10000,0.90000,1.10000,0.90000
  2003,'SAVOY 1     ', 161.0000,1,   2,  11,   1,1.02962, -29.0156,1.10000,0.90000,1.10000,0.90000
  2004,'SAVOY 2     ',  13.8000,1,   2,  11,   1,1.02990, -28.3747,1.10000,0.90000,1.10000,0.90000
  2005,'SAVOY 3     ',  13.8000,1,   2,  11,   1,1.02990, -28.3747,1.10000,0.90000,1.10000,0.90000
  2006,'SAVOY 4     ',  13.8000,1,   2,  11,   1,1.02990, -28.3747,1.10000,0.90000,1.10000,0.90000
  2007,'HONEY GROV~1', 161.0000,1,   2,  11,   1,1.02807, -28.6508,1.10000,0.90000,1.10000,0.90000
  2008,'MEMPHIS 0   ', 161.0000,2,   2,  10,   1,1.00232,  30.3511,1.10000,0.90000,1.10000,0.90000
  2009,'IOWA PARK 0 ', 161.0000,1,   2,  11,   1,0.99636,   1.0101,1.10000,0.90000,1.10000,0.90000
  2010,'VERNON 2 0  ', 161.0000,2,   2,  10,   1,1.00000,  22.3817,1.10000,0.90000,1.10000,0.90000
  2011,'PANHANDLE ~2', 500.0000,2,   2,  10,   1,1.02000,  16.0765,1.10000,0.90000,1.10000,0.90000
  2012,'PANHANDLE ~3', 161.0000,2,   2,  10,   1,0.99632,  22.1400,1.10000,0.90000,1.10000,0.90000
  2013,'PANHANDLE ~4',  18.0000,2,   2,  10,   1,1.00923,  18.6047,1.10000,0.90000,1.10000,0.90000
  2014,'CHILDRESS 0 ', 161.0000,1,   2,  10,   1,0.99810,  31.5618,1.10000,0.90000,1.10000,0.90000
  2015,'FORESTBURG 0', 161.0000,1,   2,  11,   1,1.00240, -18.9619,1.10000,0.90000,1.10000,0.90000
  2016,'SHERMAN 3 0 ', 161.0000,2,   2,  11,   1,1.02316, -31.2787,1.10000,0.90000,1.10000,0.90000
  2017,'PANHANDLE ~7', 500.0000,1,   2,  10,   1,1.03003,  11.1699,1.10000,0.90000,1.10000,0.90000
  2018,'PANHANDLE ~8', 161.0000,1,   2,  10,   1,1.00583,  14.8552,1.10000,0.90000,1.10000,0.90000
  2019,'PANHANDLE ~9',  20.0000,1,   2,  10,   1,1.03003,  11.1699,1.10000,0.90000,1.10000,0.90000
  2020,'WICHITA F~12', 161.0000,1,   2,  11,   1,0.97908,  -4.8366,1.10000,0.90000,1.10000,0.90000
  2021,'PARIS 2 0   ', 500.0000,1,   2,  11,   1,1.03504, -27.8323,1.10000,0.90000,1.10000,0.90000
  2022,'PARIS 2 1   ', 161.0000,1,   2,  11,   1,1.03233, -28.5136,1.10000,0.90000,1.10000,0.90000
  2023,'PARIS 2 2   ',  13.8000,1,   2,  11,   1,1.03504, -27.8323,1.10000,0.90000,1.10000,0.90000
  2024,'PARIS 2 3   ',  13.8000,1,   2,  11,   1,1.03504, -27.8323,1.10000,0.90000,1.10000,0.90000
  2025,'WICHITA F~10', 161.0000,1,   2,  11,   1,0.97756,  -4.9206,1.10000,0.90000,1.10000,0.90000
  2026,'WHEELER 0   ', 161.0000,1,   2,  10,   1,1.00261,  17.5796,1.10000,0.90000,1.10000,0.90000
  2027,'DEPORT 0    ', 161.0000,1,   2,  11,   1,1.02869, -29.1737,1.10000,0.90000,1.10000,0.90000
  2028,'WICHITA FA~9', 161.0000,1,   2,  11,   1,0.98639,  -4.5969,1.10000,0.90000,1.10000,0.90000
  2029,'SILVERTON 0 ', 161.0000,2,   2,  10,   1,1.00000,  33.0576,1.10000,0.90000,1.10000,0.90000
  2030,'BONHAM 0    ', 161.0000,1,   2,  11,   1,1.01729, -29.8414,1.10000,0.90000,1.10000,0.90000
  2031,'MATADOR 0   ', 161.0000,1,   2,  10,   1,1.00196,  24.7775,1.10000,0.90000,1.10000,0.90000
  2032,'ARTHUR CIT~1', 161.0000,1,   2,  11,   1,1.02971, -28.4617,1.10000,0.90000,1.10000,0.90000
  2033,'LEONARD 0   ', 161.0000,1,   2,  11,   1,1.01837, -30.0965,1.10000,0.90000,1.10000,0.90000
  2034,'GORDONVILL~1', 161.0000,1,   2,  11,   1,1.02567, -31.1676,1.10000,0.90000,1.10000,0.90000
  2035,'KNOX CITY 0 ', 161.0000,2,   2,  10,   1,1.00000,  33.3691,1.10000,0.90000,1.10000,0.90000
  2036,'WICHITA F~13', 161.0000,1,   2,  11,   1,0.98087,  -3.5041,1.10000,0.90000,1.10000,0.90000
  2037,'LINDSAY 0   ', 161.0000,1,   2,  11,   1,1.00971, -18.9776,1.10000,0.90000,1.10000,0.90000
  2038,'ECTOR 0     ', 161.0000,1,   2,  11,   1,1.02903, -28.8811,1.10000,0.90000,1.10000,0.90000
  2039,'SUNSET 0    ', 161.0000,1,   2,  11,   1,0.99273, -18.1159,1.10000,0.90000,1.10000,0.90000
  2040,'CLARKSVILL~1', 161.0000,1,   2,  11,   1,1.03227, -28.7326,1.10000,0.90000,1.10000,0.90000
  2041,'PANHANDLE ~5', 161.0000,2,   2,  10,   1,1.00000,  26.2362,1.10000,0.90000,1.10000,0.90000
  2042,'PANHANDLE ~6',  18.0000,2,   2,  10,   1,1.01000,  29.8134,1.10000,0.90000,1.10000,0.90000
  2043,'SADLER 0    ', 161.0000,1,   2,  11,   1,1.02456, -31.2257,1.10000,0.90000,1.10000,0.90000
  2044,'WHITESBORO 0', 161.0000,1,   2,  11,   1,1.00752, -24.1295,1.10000,0.90000,1.10000,0.90000
  2045,'SHEPPARD A~1', 161.0000,1,   2,  11,   1,0.98024,  -4.8133,1.10000,0.90000,1.10000,0.90000
  2046,'POTTSBORO 0 ', 161.0000,1,   2,  11,   1,1.02707, -31.0790,1.10000,0.90000,1.10000,0.90000
  2047,'BELLS 0     ', 161.0000,1,   2,  11,   1,1.02911, -29.3981,1.10000,0.90000,1.10000,0.90000
  2048,'CROSBYTON 0 ', 161.0000,2,   2,  10,   1,1.00000,  25.6278,1.10000,0.90000,1.10000,0.90000
  2049,'ELECTRA 0   ', 161.0000,2,   2,  10,   1,1.00000,   9.9637,1.10000,0.90000,1.10000,0.90000
  2050,'PATTONVILL~1', 161.0000,1,   2,  11,   1,1.02384, -29.9067,1.10000,0.90000,1.10000,0.90000
  2051,'HENRIETTA 0 ', 161.0000,2,   2,  11,   1,1.00000,  -9.4270,1.10000,0.90000,1.10000,0.90000
  2052,'PANHANDLE~13', 161.0000,1,   2,  10,   1,0.99434,  26.1181,1.10000,0.90000,1.10000,0.90000
  2053,'BOWIE 0     ', 161.0000,1,   2,  11,   1,0.99314, -20.5738,1.10000,0.90000,1.10000,0.90000
  2054,'WICHITA FA~1', 500.0000,1,   2,  11,   1,0.98161,  -5.6347,1.10000,0.90000,1.10000,0.90000
  2055,'WICHITA FA~2', 161.0000,1,   2,  11,   1,0.97879,  -4.7765,1.10000,0.90000,1.10000,0.90000
  2056,'WICHITA FA~3',  18.0000,1,   2,  11,   1,0.98161,  -5.6347,1.10000,0.90000,1.10000,0.90000
  2057,'WICHITA FA~4',  18.0000,2,   2,  11,   1,0.99000,  -5.3849,1.10000,0.90000,1.10000,0.90000
  2058,'WHITE DEER 0', 161.0000,1,   2,  10,   1,1.00098,  25.0325,1.10000,0.90000,1.10000,0.90000
  2059,'WHITE DEER 1',  13.8000,2,   2,  10,   1,1.00000,  28.5054,1.10000,0.90000,1.10000,0.90000
  2060,'ROXTON 0    ', 161.0000,1,   2,  11,   1,1.02479, -29.4504,1.10000,0.90000,1.10000,0.90000
  2061,'VERNON 1 0  ', 161.0000,1,   2,  10,   1,1.00122,  15.0286,1.10000,0.90000,1.10000,0.90000
  2062,'VERNON 1 1  ',  18.0000,2,   2,  10,   1,1.01367,  17.3554,1.10000,0.90000,1.10000,0.90000
  2063,'DENISON 2 0 ', 161.0000,1,   2,  11,   1,1.02982, -30.8764,1.10000,0.90000,1.10000,0.90000
  2064,'SUMNER 0    ', 161.0000,1,   2,  11,   1,1.02842, -28.9940,1.10000,0.90000,1.10000,0.90000
  2065,'GAINESVILL~1', 161.0000,2,   2,  11,   1,1.00529, -20.8185,1.10000,0.90000,1.10000,0.90000
  2066,'ASPERMONT 0 ', 161.0000,1,   2,  10,   1,0.98470,  23.8953,1.10000,0.90000,1.10000,0.90000
  2067,'WICHITA F~11', 161.0000,1,   2,  11,   1,0.97802,  -4.9792,1.10000,0.90000,1.10000,0.90000
  2068,'WINDTHORST 0', 161.0000,1,   2,  11,   1,0.99095,  -4.3920,1.10000,0.90000,1.10000,0.90000
  2069,'HOWE 0      ', 161.0000,1,   2,  11,   1,1.03000, -30.8849,1.10000,0.90000,1.10000,0.90000
  2070,'ARCHER 2 0  ', 161.0000,1,   2,  11,   1,0.99419,  -4.5419,1.10000,0.90000,1.10000,0.90000
  2071,'ARCHER 2 1  ',  18.0000,2,   2,  11,   1,1.00000,  -0.8469,1.10000,0.90000,1.10000,0.90000
  2072,'COLLINSVIL~1', 161.0000,1,   2,  11,   1,1.02597, -29.9380,1.10000,0.90000,1.10000,0.90000
  2073,'JAYTON 0    ', 161.0000,1,   2,  10,   1,0.99064,  16.6824,1.10000,0.90000,1.10000,0.90000
  2074,'JAYTON 1    ', 115.0000,1,   2,  10,   1,0.99298,  19.5731,1.10000,0.90000,1.10000,0.90000
  2075,'JAYTON 2    ', 115.0000,1,   2,  10,   1,0.99298,  19.5731,1.10000,0.90000,1.10000,0.90000
  2076,'JAYTON 3    ',  24.0000,2,   2,  10,   1,0.99602,  17.6350,1.10000,0.90000,1.10000,0.90000
  2077,'MUENSTER 1 0', 161.0000,1,   2,  11,   1,1.01628, -16.5570,1.10000,0.90000,1.10000,0.90000
  2078,'MUENSTER 1 1',  13.8000,2,   2,  11,   1,1.02000, -13.2315,1.10000,0.90000,1.10000,0.90000
  2079,'PADUCAH 0   ', 161.0000,1,   2,  10,   1,1.00142,  23.6253,1.10000,0.90000,1.10000,0.90000
  2080,'NOCONA 0    ', 161.0000,1,   2,  11,   1,1.00036, -13.1347,1.10000,0.90000,1.10000,0.90000
  2081,'DODD CITY 0 ', 161.0000,2,   2,  11,   1,1.02776, -28.6085,1.10000,0.90000,1.10000,0.90000
  2082,'WICHITA FA~5', 161.0000,1,   2,  11,   1,0.98452,  -2.0726,1.10000,0.90000,1.10000,0.90000
  2083,'WICHITA FA~6',  20.0000,1,   2,  11,   1,0.98452,  -2.0726,1.10000,0.90000,1.10000,0.90000
  2084,'WICHITA FA~7',  20.0000,1,   2,  11,   1,0.98452,  -2.0726,1.10000,0.90000,1.10000,0.90000
  2085,'WICHITA FA~8',  20.0000,1,   2,  11,   1,0.98452,  -2.0726,1.10000,0.90000,1.10000,0.90000
  2086,'MONTAGUE 0  ', 161.0000,1,   2,  11,   1,0.99510, -16.1974,1.10000,0.90000,1.10000,0.90000
  2087,'SPUR 0      ', 161.0000,2,   2,  10,   1,1.00140,  24.2180,1.10000,0.90000,1.10000,0.90000
  2088,'ARCHER 1 0  ', 161.0000,1,   2,  11,   1,0.99275,  -4.3007,1.10000,0.90000,1.10000,0.90000
  2089,'ARCHER 1 1  ',  24.0000,2,   2,  11,   1,1.00000,  -0.6800,1.10000,0.90000,1.10000,0.90000
  2090,'ANNONA 0    ', 161.0000,1,   2,  11,   1,1.03006, -29.3231,1.10000,0.90000,1.10000,0.90000
  2091,'SEYMOUR 0   ', 161.0000,2,   2,  10,   1,1.00000,  30.7101,1.10000,0.90000,1.10000,0.90000
  2092,'DENISON 1 0 ', 161.0000,1,   2,  11,   1,1.02851, -30.1727,1.10000,0.90000,1.10000,0.90000
  2093,'PANHANDLE~10', 161.0000,2,   2,  10,   1,1.00000,  19.0076,1.10000,0.90000,1.10000,0.90000
  2094,'PANHANDLE~11',  13.8000,2,   2,  10,   1,1.00000,  19.4442,1.10000,0.90000,1.10000,0.90000
  2095,'PANHANDLE~12',  13.8000,2,   2,  10,   1,1.00000,  19.2232,1.10000,0.90000,1.10000,0.90000
  2096,'RALLS 1 0   ', 500.0000,1,   2,  10,   1,1.02133,  10.6291,1.10000,0.90000,1.10000,0.90000
  2097,'RALLS 1 1   ', 230.0000,1,   2,  10,   1,1.01044,  13.3348,1.10000,0.90000,1.10000,0.90000
  2098,'RALLS 1 2   ', 161.0000,1,   2,  10,   1,0.97897,  22.2186,1.10000,0.90000,1.10000,0.90000
  2099,'RALLS 1 3   ',  18.0000,2,   2,  10,   1,1.02086,  10.7726,1.10000,0.90000,1.10000,0.90000
  2100,'RALLS 1 4   ',  18.0000,2,   2,  10,   1,1.02000,  13.2514,1.10000,0.90000,1.10000,0.90000
  2101,'SHERMAN 1 0 ', 500.0000,1,   2,  11,   1,1.02656, -28.4180,1.10000,0.90000,1.10000,0.90000
  2102,'SHERMAN 1 1 ', 161.0000,1,   2,  11,   1,1.02117, -28.3745,1.10000,0.90000,1.10000,0.90000
  2103,'SHERMAN 1 2 ',  20.0000,1,   2,  11,   1,1.02656, -28.4180,1.10000,0.90000,1.10000,0.90000
  2104,'SHERMAN 1 3 ',  20.0000,1,   2,  11,   1,1.02656, -28.4180,1.10000,0.90000,1.10000,0.90000
  2105,'SHERMAN 1 4 ',  20.0000,1,   2,  11,   1,1.02656, -28.4180,1.10000,0.90000,1.10000,0.90000
  2106,'WHITEWRIGH~1', 161.0000,1,   2,  11,   1,1.01600, -30.2115,1.10000,0.90000,1.10000,0.90000
  2107,'SHERMAN 2 0 ', 161.0000,1,   2,  11,   1,1.01697, -28.6232,1.10000,0.90000,1.10000,0.90000
  2108,'ROCHESTER 0 ', 161.0000,1,   2,  10,   1,0.99582,   8.4670,1.10000,0.90000,1.10000,0.90000
  2109,'BURKBURNET~1', 161.0000,2,   2,  11,   1,1.00000,  -0.8504,1.10000,0.90000,1.10000,0.90000
...
0 / END OF BUS DATA, BEGIN LOAD DATA
  1001,'1 ',1,   1,   9,    10.037,     5.888,     0.000,     0.000,     0.000,     0.000,   1,1,0
  1002,'1 ',1,   1,   9,     7.445,     4.367,     0.000,     0.000,     0.000,     0.000,   1,1,0
  1007,'1 ',1,   1,   9,     3.385,     1.986,     0.000,     0.000,     0.000,     0.000,   1,1,0
  1012,'1 ',1,   1,   9,     1.442,     0.846,     0.000,     0.000,     0.000,     0.000,   1,1,0
  1013,'1 ',1,   1,   9,     0.246,     0.144,     0.000,     0.000,     0.000,     0.000,   1,1,0
  1013,'2 ',1,   1,   9,     0.733,     0.430,     0.000,     0.000,     0.000,     0.000,   1,1,0
  1013,'3 ',1,   1,   9,    13.137,     7.706,     0.000,     0.000,     0.000,     0.000,   1,1,0
  1014,'1 ',1,   1,   9,     1.072,     0.629,     0.000,     0.000,     0.000,     0.000,   1,1,0
  1015,'1 ',1,   1,   9,     3.627,     2.128,     0.000,     0.000,     0.000,     0.000,   1,1,0
  1016,'1 ',1,   1,   9,     1.395,     0.819,     0.000,     0.000,     0.000,     0.000,   1,1,0
  1017,'1 ',1,   1,   9,     8.861,     5.198,     0.000,     0.000,     0.000,     0.000,   1,1,0
  1018,'1 ',1,   1,   9,     0.033,     0.020,     0.000,     0.000,     0.000,     0.000,   1,1,0
  1019,'1 ',1,   1,   9,    29.838,    17.503,     0.000,     0.000,     0.000,     0.000,   1,1,0
  1024,'1 ',1,   1,   9,    30.448,    17.861,     0.000,     0.000,     0.000,     0.000,   1,1,0
  1027,'1 ',1,   1,   9,     0.291,     0.171,     0.000,     0.000,     0.000,     0.000,   1,1,0
  1027,'2 ',1,   1,   9,    48.594,    28.506,     0.000,     0.000,     0.000,     0.000,   1,1,0
  1028,'1 ',1,   1,   9,     0.688,     0.404,     0.000,     0.000,     0.000,     0.000,   1,1,0
  1028,'2 ',1,   1,   9,     0.364,     0.213,     0.000,     0.000,     0.000,     0.000,   1,1,0
  1028,'3 ',1,   1,   9,     2.366,     1.388,     0.000,     0.000,     0.000,     0.000,   1,1,0
  1028,'4 ',1,   1,   9,     1.419,     0.832,     0.000,     0.000,     0.000,     0.000,   1,1,0
  1029,'1 ',1,   1,   9,    40.178,    23.569,     0.000,     0.000,     0.000,     0.000,   1,1,0
  1030,'1 ',1,   1,   9,    11.131,     6.530,     0.000,     0.000,     0.000,     0.000,   1,1,0
  1030,'2 ',1,   1,   9,     0.764,     0.448,     0.000,     0.000,     0.000,     0.000,   1,1,0
  1031,'1 ',1,   1,   9,     4.466,     2.620,     0.000,     0.000,     0.000,     0.000,   1,1,0
  1036,'1 ',1,   1,   9,     0.491,     0.288,     0.000,     0.000,     0.000,     0.000,   1,1,0
  1036,'2 ',1,   1,   9,     6.076,     3.564,     0.000,     0.000,     0.000,     0.000,   1,1,0
  1037,'1 ',1,   1,   9,    49.380,    28.967,     0.000,     0.000,     0.000,     0.000,   1,1,0
  1040,'1 ',1,   1,   9,    21.425,    12.568,     0.000,     0.000,     0.000,     0.000,   1,1,0
  1044,'1 ',1,   1,   9,     2.179,     1.278,     0.000,     0.000,     0.000,     0.000,   1,1,0
  1044,'2 ',1,   1,   9,     4.912,     2.881,     0.000,     0.000,     0.000,     0.000,   1,1,0
  1045,'1 ',1,   1,   9,    47.605,    27.926,     0.000,     0.000,     0.000,     0.000,   1,1,0
  1046,'1 ',1,   1,   9,     0.003,     0.002,     0.000,     0.000,     0.000,     0.000,   1,1,0
  1046,'2 ',1,   1,   9,     5.351,     3.139,     0.000,     0.000,     0.000,     0.000,   1,1,0
  1054,'1 ',1,   1,   9,     0.858,     0.503,     0.000,     0.000,     0.000,     0.000,   1,1,0
  1054,'2 ',1,   1,   9,     0.251,     0.147,     0.000,     0.000,     0.000,     0.000,   1,1,0
  1054,'3 ',1,   1,   9,     6.131,     3.596,     0.000,     0.000,     0.000,     0.000,   1,1,0
  1055,'1 ',1,   1,   9,     1.921,     1.127,     0.000,     0.000,     0.000,     0.000,   1,1,0
  1058,'1 ',1,   1,   9,     1.974,     1.158,     0.000,     0.000,     0.000,     0.000,   1,1,0
  1058,'2 ',1,   1,   9,     4.525,     2.655,     0.000,     0.000,     0.000,     0.000,   1,1,0
  1064,'1 ',1,   1,   9,     3.183,     1.867,     0.000,     0.000,     0.000,     0.000,   1,1,0
  1064,'2 ',1,   1,   9,    56.592,    33.198,     0.000,     0.000,     0.000,     0.000,   1,1,0
  1067,'1 ',1,   1,   9,    49.049,    28.773,     0.000,     0.000,     0.000,     0.000,   1,1,0
  1068,'1 ',1,   1,   9,     0.333,     0.195,     0.000,     0.000,     0.000,     0.000,   1,1,0
  1068,'2 ',1,   1,   9,    28.358,    16.635,     0.000,     0.000,     0.000,     0.000,   1,1,0
  1071,'1 ',1,   1,   9,    44.177,    25.915,     0.000,     0.000,     0.000,     0.000,   1,1,0
  1083,'1 ',1,   1,   9,    19.293,    11.318,     0.000,     0.000,     0.000,     0.000,   1,1,0
  1085,'1 ',1,   1,   9,     1.411,     0.828,     0.000,     0.000,     0.000,     0.000,   1,1,0
  1085,'2 ',1,   1,   9,     8.875,     5.206,     0.000,     0.000,     0.000,     0.000,   1,1,0
  1086,'1 ',1,   1,   9,    19.162,    11.240,     0.000,     0.000,     0.000,     0.000,   1,1,0
  1087,'1 ',1,   1,   9,     0.439,     0.258,     0.000,     0.000,     0.000,     0.000,   1,1,0
  1089,'1 ',1,   1,   9,     0.401,     0.235,     0.000,     0.000,     0.000,     0.000,   1,1,0
  1089,'2 ',1,   1,   9,    19.211,    11.269,     0.000,     0.000,     0.000,     0.000,   1,1,0
  1091,'1 ',1,   1,   9,     2.276,     1.335,     0.000,     0.000,     0.000,     0.000,   1,1,0
  1091,'2 ',1,   1,   9,     3.337,     1.958,     0.000,     0.000,     0.000,     0.000,   1,1,0
  2001,'1 ',1,   2,  11,     6.910,     4.054,     0.000,     0.000,     0.000,     0.000,   1,1,0
  2001,'2 ',1,   2,  11,    16.446,     9.647,     0.000,     0.000,     0.000,     0.000,   1,1,0
  2007,'1 ',1,   2,  11,     4.608,     2.703,     0.000,     0.000,     0.000,     0.000,   1,1,0
  2008,'1 ',1,   2,  10,     3.893,     2.284,     0.000,     0.000,     0.000,     0.000,   1,1,0
  2009,'1 ',1,   2,  11,    18.902,    11.088,     0.000,     0.000,     0.000,     0.000,   1,1,0
  2010,'1 ',1,   2,  10,     2.466,     1.447,     0.000,     0.000,     0.000,     0.000,   1,1,0
  2010,'2 ',1,   2,  10,     4.640,     2.722,     0.000,     0.000,     0.000,     0.000,   1,1,0
  2010,'3 ',1,   2,  10,     1.414,     0.830,     0.000,     0.000,     0.000,     0.000,   1,1,0
  2010,'4 ',1,   2,  10,     0.093,     0.054,     0.000,     0.000,     0.000,     0.000,   1,1,0
  2010,'5 ',1,   2,  10,    18.824,    11.042,     0.000,     0.000,     0.000,     0.000,   1,1,0
  2014,'1 ',1,   2,  10,     1.750,     1.027,     0.000,     0.000,     0.000,     0.000,   1,1,0
  2014,'2 ',1,   2,  10,    10.531,     6.178,     0.000,     0.000,     0.000,     0.000,   1,1,0
  2015,'1 ',1,   2,  11,     2.263,     1.328,     0.000,     0.000,     0.000,     0.000,   1,1,0
  2016,'1 ',1,   2,  11,    33.456,    19.626,     0.000,     0.000,     0.000,     0.000,   1,1,0
  2020,'1 ',1,   2,  11,    23.171,    13.592,     0.000,     0.000,     0.000,     0.000,   1,1,0
  2022,'1 ',1,   2,  11,     5.586,     3.277,     0.000,     0.000,     0.000,     0.000,   1,1,0
  2025,'1 ',1,   2,  11,    19.135,    11.225,     0.000,     0.000,     0.000,     0.000,   1,1,0
  2026,'1 ',1,   2,  10,     1.213,     0.711,     0.000,     0.000,     0.000,     0.000,   1,1,0
  2026,'2 ',1,   2,  10,     0.458,     0.269,     0.000,     0.000,     0.000,     0.000,   1,1,0
  2026,'3 ',1,   2,  10,     3.465,     2.032,     0.000,     0.000,     0.000,     0.000,   1,1,0
  2026,'4 ',1,   2,  10,     3.834,     2.249,     0.000,     0.000,     0.000,     0.000,   1,1,0
  2027,'1 ',1,   2,  11,     1.717,     1.007,     0.000,     0.000,     0.000,     0.000,   1,1,0
  2028,'1 ',1,   2,  11,     6.877,     4.034,     0.000,     0.000,     0.000,     0.000,   1,1,0
  2029,'1 ',1,   2,  10,     1.546,     0.907,     0.000,     0.000,     0.000,     0.000,   1,1,0
  2030,'1 ',1,   2,  11,     1.889,     1.108,     0.000,     0.000,     0.000,     0.000,   1,1,0
  2030,'2 ',1,   2,  11,    20.882,    12.249,     0.000,     0.000,     0.000,     0.000,   1,1,0
  2031,'1 ',1,   2,  10,     0.380,     0.223,     0.000,     0.000,     0.000,     0.000,   1,1,0
  2031,'2 ',1,   2,  10,     0.614,     0.360,     0.000,     0.000,     0.000,     0.000,   1,1,0
  2031,'3 ',1,   2,  10,     1.791,     1.051,     0.000,     0.000,     0.000,     0.000,   1,1,0
  2032,'1 ',1,   2,  11,     1.620,     0.950,     0.000,     0.000,     0.000,     0.000,   1,1,0
  2033,'1 ',1,   2,  11,     0.629,     0.369,     0.000,     0.000,     0.000,     0.000,   1,1,0
  2033,'2 ',1,   2,  11,     5.926,     3.477,     0.000,     0.000,     0.000,     0.000,   1,1,0
  2034,'1 ',1,   2,  11,     2.579,     1.513,     0.000,     0.000,     0.000,     0.000,   1,1,0
  2035,'1 ',1,   2,  10,     2.004,     1.176,     0.000,     0.000,     0.000,     0.000,   1,1,0
  2035,'2 ',1,   2,  10,     0.258,     0.151,     0.000,     0.000,     0.000,     0.000,   1,1,0
  2036,'1 ',1,   2,  11,    20.086,    11.783,     0.000,     0.000,     0.000,     0.000,   1,1,0
  2037,'1 ',1,   2,  11,     0.333,     0.195,     0.000,     0.000,     0.000,     0.000,   1,1,0
  2037,'2 ',1,   2,  11,     1.358,     0.796,     0.000,     0.000,     0.000,     0.000,   1,1,0
  2038,'1 ',1,   2,  11,     1.258,     0.738,     0.000,     0.000,     0.000,     0.000,   1,1,0
  2039,'1 ',1,   2,  11,     2.685,     1.575,     0.000,     0.000,     0.000,     0.000,   1,1,0
  2040,'1 ',1,   2,  11,     7.681,     4.506,     0.000,     0.000,     0.000,     0.000,   1,1,0
  2043,'1 ',1,   2,  11,     2.046,     1.200,     0.000,     0.000,     0.000,     0.000,   1,1,0
  2044,'1 ',1,   2,  11,    13.237,     7.765,     0.000,     0.000,     0.000,     0.000,   1,1,0
  2045,'1 ',1,   2,  11,    10.918,     6.405,     0.000,     0.000,     0.000,     0.000,   1,1,0
  2046,'1 ',1,   2,  11,    10.691,     6.271,     0.000,     0.000,     0.000,     0.000,   1,1,0
  2047,'1 ',1,   2,  11,     4.544,     2.666,     0.000,     0.000,     0.000,     0.000,   1,1,0
  2047,'2 ',1,   2,  11,     2.679,     1.572,     0.000,     0.000,     0.000,     0.000,   1,1,0
  2048,'1 ',1,   2,  10,     3.099,     1.818,     0.000,     0.000,     0.000,     0.000,   1,1,0
  2049,'1 ',1,   2,  10,     0.235,     0.138,     0.000,     0.000,     0.000,     0.000,   1,1,0
  2049,'2 ',1,   2,  10,     0.280,     0.164,     0.000,     0.000,     0.000,     0.000,   1,1,0
  2049,'3 ',1,   2,  10,     5.074,     2.977,     0.000,     0.000,     0.000,     0.000,   1,1,0
  2050,'1 ',1,   2,  11,     1.766,     1.036,     0.000,     0.000,     0.000,     0.000,   1,1,0
  2051,'1 ',1,   2,  11,     8.622,     5.057,     0.000,     0.000,     0.000,     0.000,   1,1,0
  2052,'1 ',1,   2,  10,     4.569,     2.680,     0.000,     0.000,     0.000,     0.000,   1,1,0
  2052,'2 ',1,   2,  10,     7.428,     4.357,     0.000,     0.000,     0.000,     0.000,   1,1,0
  2053,'1 ',1,   2,  11,    14.071,     8.254,     0.000,     0.000,     0.000,     0.000,   1,1,0
  2055,'1 ',1,   2,  11,    23.966,    14.059,     0.000,     0.000,     0.000,     0.000,   1,1,0
  2060,'1 ',1,   2,  11,     1.833,     1.075,     0.000,     0.000,     0.000,     0.000,   1,1,0
  2063,'1 ',1,   2,  11,    31.693,    18.591,     0.000,     0.000,     0.000,     0.000,   1,1,0
  2064,'1 ',1,   2,  11,     3.399,     1.994,     0.000,     0.000,     0.000,     0.000,   1,1,0
  2064,'2 ',1,   2,  11,     1.453,     0.853,     0.000,     0.000,     0.000,     0.000,   1,1,0
  2065,'1 ',1,   2,  11,    37.848,    22.202,     0.000,     0.000,     0.000,     0.000,   1,1,0
  2066,'1 ',1,   2,  10,     1.956,     1.147,     0.000,     0.000,     0.000,     0.000,   1,1,0
  2066,'2 ',1,   2,  10,     1.227,     0.720,     0.000,     0.000,     0.000,     0.000,   1,1,0
  2066,'3 ',1,   2,  10,     0.252,     0.148,     0.000,     0.000,     0.000,     0.000,   1,1,0
  2067,'1 ',1,   2,  11,    26.066,    15.291,     0.000,     0.000,     0.000,     0.000,   1,1,0
  2068,'1 ',1,   2,  11,     2.782,     1.632,     0.000,     0.000,     0.000,     0.000,   1,1,0
  2069,'1 ',1,   2,  11,    10.589,     6.212,     0.000,     0.000,     0.000,     0.000,   1,1,0
  2072,'1 ',1,   2,  11,     4.688,     2.750,     0.000,     0.000,     0.000,     0.000,   1,1,0
  2079,'1 ',1,   2,  10,     2.163,     1.269,     0.000,     0.000,     0.000,     0.000,   1,1,0
  2080,'1 ',1,   2,  11,     8.178,     4.797,     0.000,     0.000,     0.000,     0.000,   1,1,0
  2081,'1 ',1,   2,  11,     2.156,     1.265,     0.000,     0.000,     0.000,     0.000,   1,1,0
  2082,'1 ',1,   2,  11,    28.512,    16.725,     0.000,     0.000,     0.000,     0.000,   1,1,0
  2086,'1 ',1,   2,  11,     1.059,     0.621,     0.000,     0.000,     0.000,     0.000,   1,1,0
  2087,'1 ',1,   2,  10,     3.814,     2.237,     0.000,     0.000,     0.000,     0.000,   1,1,0
  2090,'1 ',1,   2,  11,     1.171,     0.687,     0.000,     0.000,     0.000,     0.000,   1,1,0
  2091,'1 ',1,   2,  10,     8.233,     4.830,     0.000,     0.000,     0.000,     0.000,   1,1,0
  2092,'1 ',1,   2,  11,    11.644,     6.831,     0.000,     0.000,     0.000,     0.000,   1,1,0
  2106,'1 ',1,   2,  11,     6.957,     4.081,     0.000,     0.000,     0.000,     0.000,   1,1,0
  2107,'1 ',1,   2,  11,    35.815,    21.009,     0.000,     0.000,     0.000,     0.000,   1,1,0
  2108,'1 ',1,   2,  10,     1.036,     0.608,     0.000,     0.000,     0.000,     0.000,   1,1,0
  2109,'1 ',1,   2,  11,    16.330,     9.579,     0.000,     0.000,     0.000,     0.000,   1,1,0
  2110,'1 ',1,   2,  11,     4.148,     2.434,     0.000,     0.000,     0.000,     0.000,   1,1,0
  2111,'1 ',1,   2,  11,     3.382,     1.984,     0.000,     0.000,     0.000,     0.000,   1,1,0
  2111,'2 ',1,   2,  11,     3.357,     1.969,     0.000,     0.000,     0.000,     0.000,   1,1,0
  2112,'1 ',1,   2,  11,     2.194,     1.287,     0.000,     0.000,     0.000,     0.000,   1,1,0
  2114,'1 ',1,   2,  11,    34.185,    20.053,     0.000,     0.000,     0.000,     0.000,   1,1,0
  2121,'1 ',1,   2,  11,     1.127,     0.661,     0.000,     0.000,     0.000,     0.000,   1,1,0
  2122,'1 ',1,   2,  11,     3.247,     1.905,     0.000,     0.000,     0.000,     0.000,   1,1,0
  2124,'1 ',1,   2,  11,    10.281,     6.031,     0.000,     0.000,     0.000,     0.000,   1,1,0
  2125,'1 ',1,   2,  11,     1.959,     1.149,     0.000,     0.000,     0.000,     0.000,   1,1,0
  2126,'1 ',1,   2,  11,     6.876,     4.033,     0.000,     0.000,     0.000,     0.000,   1,1,0
  2129,'1 ',1,   2,  11,     3.204,     1.879,     0.000,     0.000,     0.000,     0.000,   1,1,0
  2132,'1 ',1,   2,  10,     5.767,     3.383,     0.000,     0.000,     0.000,     0.000,   1,1,0
  2133,'1 ',1,   2,  11,     2.743,     1.609,     0.000,     0.000,     0.000,     0.000,   1,1,0
  3002,'1 ',1,   3,  28,    54.511,    31.977,     0.000,     0.000,     0.000,     0.000,   1,1,0
  3005,'1 ',1,   3,  28,     0.383,     0.224,     0.000,     0.000,     0.000,     0.000,   1,1,0
  3005,'2 ',1,   3,  28,     0.398,     0.234,     0.000,     0.000,     0.000,     0.000,   1,1,0
  3005,'3 ',1,   3,  28,     2.765,     1.622,     0.000,     0.000,     0.000,     0.000,   1,1,0
  3006,'1 ',1,   3,  27,     3.549,     2.082,     0.000,     0.000,     0.000,     0.000,   1,1,0
  3007,'1 ',1,   3,  27,     7.228,     4.240,     0.000,     0.000,     0.000,     0.000,   1,1,0
  3008,'1 ',1,   3,  27,     9.175,     5.382,     0.000,     0.000,     0.000,     0.000,   1,1,0
  3008,'2 ',1,   3,  27,     0.393,     0.230,     0.000,     0.000,     0.000,     0.000,   1,1,0
  3009,'1 ',1,   3,  28,     6.057,     3.553,     0.000,     0.000,     0.000,     0.000,   1,1,0
  3010,'1 ',1,   3,  28,     2.256,     1.323,     0.000,     0.000,     0.000,     0.000,   1,1,0
  3011,'1 ',1,   3,  28,     9.168,     5.378,     0.000,     0.000,     0.000,     0.000,   1,1,0
  3011,'2 ',1,   3,  28,     3.940,     2.311,     0.000,     0.000,     0.000,     0.000,   1,1,0
  3012,'1 ',1,   3,  28,     0.272,     0.160,     0.000,     0.000,     0.000,     0.000,   1,1,0
  3013,'1 ',1,   3,  27,    31.181,    18.291,     0.000,     0.000,     0.000,     0.000,   1,1,0
  3014,'1 ',1,   3,  28,    10.627,     6.234,     0.000,     0.000,     0.000,     0.000,   1,1,0
  3015,'1 ',1,   3,  27,     2.591,     1.520,     0.000,     0.000,     0.000,     0.000,   1,1,0
  3021,'1 ',1,   3,  27,     0.254,     0.149,     0.000,     0.000,     0.000,     0.000,   1,1,0
  3021,'2 ',1,   3,  27,     0.684,     0.401,     0.000,     0.000,     0.000,     0.000,   1,1,0
  3022,'1 ',1,   3,  27,    11.877,     6.967,     0.000,     0.000,     0.000,     0.000,   1,1,0
  3023,'1 ',1,   3,  27,     5.027,     2.949,     0.000,     0.000,     0.000,     0.000,   1,1,0
  3024,'1 ',1,   3,  28,     4.893,     2.870,     0.000,     0.000,     0.000,     0.000,   1,1,0
  3025,'1 ',1,   3,  28,     6.605,     3.874,     0.000,     0.000,     0.000,     0.000,   1,1,0
  3029,'1 ',1,   3,  28,     2.350,     1.379,     0.000,     0.000,     0.000,     0.000,   1,1,0
  3030,'1 ',1,   3,  27,    62.655,    36.754,     0.000,     0.000,     0.000,     0.000,   1,1,0
  3031,'1 ',1,   3,  27,     7.116,     4.174,     0.000,     0.000,     0.000,     0.000,   1,1,0
  3032,'1 ',1,   3,  27,    35.193,    20.645,     0.000,     0.000,     0.000,     0.000,   1,1,0
  3035,'1 ',1,   3,  28,     1.674,     0.982,     0.000,     0.000,     0.000,     0.000,   1,1,0
  3036,'1 ',1,   3,  28,     0.627,     0.368,     0.000,     0.000,     0.000,     0.000,   1,1,0
  3036,'2 ',1,   3,  28,     2.175,     1.276,     0.000,     0.000,     0.000,     0.000,   1,1,0
  3040,'1 ',1,   3,  27,     7.055,     4.139,     0.000,     0.000,     0.000,     0.000,   1,1,0
  3042,'1 ',1,   3,  27,     2.423,     1.421,     0.000,     0.000,     0.000,     0.000,   1,1,0
  3042,'2 ',1,   3,  27,     1.805,     1.059,     0.000,     0.000,     0.000,     0.000,   1,1,0
  3049,'1 ',1,   3,  27,     5.112,     2.999,     0.000,     0.000,     0.000,     0.000,   1,1,0
  3051,'1 ',1,   3,  28,     0.407,     0.239,     0.000,     0.000,     0.000,     0.000,   1,1,0
  3051,'2 ',1,   3,  28,    69.768,    40.927,     0.000,     0.000,     0.000,     0.000,   1,1,0
  3052,'1 ',1,   3,  28,     3.901,     2.288,     0.000,     0.000,     0.000,     0.000,   1,1,0
  3066,'1 ',1,   3,  28,    10.643,     6.243,     0.000,     0.000,     0.000,     0.000,   1,1,0
  3069,'1 ',1,   3,  27,     1.842,     1.080,     0.000,     0.000,     0.000,     0.000,   1,1,0
  3072,'1 ',1,   3,  27,     2.891,     1.696,     0.000,     0.000,     0.000,     0.000,   1,1,0
  3075,'1 ',1,   3,  28,     5.884,     3.452,     0.000,     0.000,     0.000,     0.000,   1,1,0
  3076,'1 ',1,   3,  28,     5.214,     3.058,     0.000,     0.000,     0.000,     0.000,   1,1,0
  3077,'1 ',1,   3,  27,    33.160,    19.452,     0.000,     0.000,     0.000,     0.000,   1,1,0
  3093,'1 ',1,   3,  28,     2.437,     1.430,     0.000,     0.000,     0.000,     0.000,   1,1,0
  3099,'1 ',1,   3,  27,     5.834,     3.422,     0.000,     0.000,     0.000,     0.000,   1,1,0
  3100,'1 ',1,   3,  27,     4.118,     2.416,     0.000,     0.000,     0.000,     0.000,   1,1,0
  3101,'1 ',1,   3,  28,     0.051,     0.030,     0.000,     0.000,     0.000,     0.000,   1,1,0
  3101,'2 ',1,   3,  28,     1.349,     0.791,     0.000,     0.000,     0.000,     0.000,   1,1,0
  3101,'3 ',1,   3,  28,     3.156,     1.851,     0.000,     0.000,     0.000,     0.000,   1,1,0
  3102,'1 ',1,   3,  27,    36.348,    21.322,     0.000,     0.000,     0.000,     0.000,   1,1,0
  3103,'1 ',1,   3,  27,     0.161,     0.094,     0.000,     0.000,     0.000,     0.000,   1,1,0
  3103,'2 ',1,   3,  27,    18.830,    11.046,     0.000,     0.000,     0.000,     0.000,   1,1,0
...
0 / END OF LOAD DATA, BEGIN FIXED SHUNT DATA
  2017,'2 ',1,     0.000,   -78.817
  2096,'2 ',1,     0.000,     0.000
  3051,'2 ',0,     0.000,    80.000
  8005,'1 ',0,     0.000,   100.000
0 / END OF FIXED SHUNT DATA, BEGIN GENERATOR DATA
  1004,'1 ',   158.250,    19.371,    44.940,   -30.380,1.01000,     0,   253.200, 0.00000E+0, 1.00000E+0, 0.00000E+0, 0.00000E+0,1.00000,1,  100.0,   211.000,    63.300,   1,1.0000,    ,      ,    ,      ,    ,      ,1, 1.0000
  1006,'1 ',    25.730,     1.780,     7.310,    -4.940,1.00000,     0,    41.160, 0.00000E+0, 1.00000E+0, 0.00000E+0, 0.00000E+0,1.00000,1,  100.0,    34.300,    10.290,   1,1.0000,    ,      ,    ,      ,    ,      ,1, 1.0000
  1007,'1 ',   144.396,     0.000,     0.000,     0.000,1.00000,     0,   601.650, 0.00000E+0, 1.00000E+0, 0.00000E+0, 0.00000E+0,1.00000,1,  100.0,   481.320,     0.000,   1,1.0000,    ,      ,    ,      ,    ,      ,1, 1.0000
  1009,'1 ',    61.870,   -11.880,    17.570,   -11.880,1.00000,     0,    99.000, 0.00000E+0, 1.00000E+0, 0.00000E+0, 0.00000E+0,1.00000,1,  100.0,    82.500,    24.750,   1,1.0000,    ,      ,    ,      ,    ,      ,1, 1.0000
  1011,'1 ',    10.000,     0.000,     0.000,     0.000,1.00000,     0,    12.000, 0.00000E+0, 1.00000E+0, 0.00000E+0, 0.00000E+0,1.00000,1,  100.0,    10.000,     3.000,   1,1.0000,    ,      ,    ,      ,    ,      ,1, 1.0000
  1016,'1 ',   292.980,   -45.405,   381.179,  -381.179,1.00000,     0,  1220.750, 0.00000E+0, 1.00000E+0, 0.00000E+0, 0.00000E+0,1.00000,1,  100.0,   976.600,     0.000,   1,1.0000,    ,      ,    ,      ,    ,      ,1, 1.0000
  1016,'2 ',    90.000,   -45.405,   117.094,  -117.094,1.00000,     0,   375.000, 0.00000E+0, 1.00000E+0, 0.00000E+0, 0.00000E+0,1.00000,1,  100.0,   300.000,     0.000,   1,1.0000,    ,      ,    ,      ,    ,      ,1, 1.0000
  1021,'1 ',   149.630,    -2.329,    42.490,   -28.730,1.00000,     0,   239.400, 0.00000E+0, 1.00000E+0, 0.00000E+0, 0.00000E+0,1.00000,1,  100.0,   199.500,    59.850,   1,1.0000,    ,      ,    ,      ,    ,      ,1, 1.0000
  1022,'1 ',    79.860,     0.000,     0.000,     0.000,1.00000,     0,   332.750, 0.00000E+0, 1.00000E+0, 0.00000E+0, 0.00000E+0,1.00000,1,  100.0,   266.200,     0.000,   1,1.0000,    ,      ,    ,      ,    ,      ,1, 1.0000
  1023,'1 ',   135.000,    18.420,    38.340,   -25.920,1.01000,     0,   216.000, 0.00000E+0, 1.00000E+0, 0.00000E+0, 0.00000E+0,1.00000,1,  100.0,   180.000,    54.000,   1,1.0000,    ,      ,    ,      ,    ,      ,1, 1.0000
  1023,'2 ',    79.860,     0.000,     0.000,     0.000,1.01000,     0,   332.750, 0.00000E+0, 1.00000E+0, 0.00000E+0, 0.00000E+0,1.00000,1,  100.0,   266.200,     0.000,   1,1.0000,    ,      ,    ,      ,    ,      ,1, 1.0000
  1026,'1 ',    93.150,     1.601,    26.450,   -17.880,1.00000,     0,   149.040, 0.00000E+0, 1.00000E+0, 0.00000E+0, 0.00000E+0,1.00000,1,  100.0,   124.200,    37.260,   1,1.0000,    ,      ,    ,      ,    ,      ,1, 1.0000
  1027,'1 ',     1.080,    -1.405,     1.405,    -1.405,1.00000,     0,     4.500, 0.00000E+0, 1.00000E+0, 0.00000E+0, 0.00000E+0,1.00000,1,  100.0,     3.600,     0.000,   1,1.0000,    ,      ,    ,      ,    ,      ,1, 1.0000
  1028,'1 ',   169.170,   -52.266,   220.097,  -220.097,1.00000,     0,   704.875, 0.00000E+0, 1.00000E+0, 0.00000E+0, 0.00000E+0,1.00000,1,  100.0,   563.900,     0.000,   1,1.0000,    ,      ,    ,      ,    ,      ,1, 1.0000
  1029,'1 ',    42.090,   -21.535,    54.761,   -54.761,1.00000,     0,   175.375, 0.00000E+0, 1.00000E+0, 0.00000E+0, 0.00000E+0,1.00000,1,  100.0,   140.300,     0.000,   1,1.0000,    ,      ,    ,      ,    ,      ,1, 1.0000
  1030,'1 ',    15.000,     0.000,     0.000,     0.000,1.00000,     0,    62.500, 0.00000E+0, 1.00000E+0, 0.00000E+0, 0.00000E+0,1.00000,1,  100.0,    50.000,     0.000,   1,1.0000,    ,      ,    ,      ,    ,      ,1, 1.0000
  1032,'1 ',   139.425,     0.000,     0.000,     0.000,1.00000,     0,   580.938, 0.00000E+0, 1.00000E+0, 0.00000E+0, 0.00000E+0,1.00000,1,  100.0,   464.750,     0.000,   1,1.0000,    ,      ,    ,      ,    ,      ,1, 1.0000
  1033,'1 ',   208.500,    53.323,    59.210,   -40.030,1.00000,     0,   333.600, 0.00000E+0, 1.00000E+0, 0.00000E+0, 0.00000E+0,1.00000,1,  100.0,   278.000,    83.400,   1,1.0000,    ,      ,    ,      ,    ,      ,1, 1.0000
  1033,'2 ',   139.425,     0.000,     0.000,     0.000,1.00000,     0,   580.938, 0.00000E+0, 1.00000E+0, 0.00000E+0, 0.00000E+0,1.00000,1,  100.0,   464.750,     0.000,   1,1.0000,    ,      ,    ,      ,    ,      ,1, 1.0000
  1035,'1 ',    67.500,    -4.808,    19.170,   -12.960,1.00000,     0,   108.000, 0.00000E+0, 1.00000E+0, 0.00000E+0, 0.00000E+0,1.00000,1,  100.0,    90.000,    27.000,   1,1.0000,    ,      ,    ,      ,    ,      ,1, 1.0000
  1036,'1 ',    78.600,     0.000,     0.000,     0.000,1.00000,     0,   327.500, 0.00000E+0, 1.00000E+0, 0.00000E+0, 0.00000E+0,1.00000,1,  100.0,   262.000,     0.000,   1,1.0000,    ,      ,    ,      ,    ,      ,1, 1.0000
  1037,'1 ',    54.000,     0.000,     0.000,     0.000,1.00000,     0,   225.000, 0.00000E+0, 1.00000E+0, 0.00000E+0, 0.00000E+0,1.00000,1,  100.0,   180.000,     0.000,   1,1.0000,    ,      ,    ,      ,    ,      ,1, 1.0000
  1039,'1 ',   110.630,   -21.240,    31.420,   -21.240,1.00000,     0,   177.000, 0.00000E+0, 1.00000E+0, 0.00000E+0, 0.00000E+0,1.00000,1,  100.0,   147.500,    44.250,   1,1.0000,    ,      ,    ,      ,    ,      ,1, 1.0000
  1040,'1 ',    48.210,   -26.830,    62.723,   -62.723,1.00000,     0,   200.875, 0.00000E+0, 1.00000E+0, 0.00000E+0, 0.00000E+0,1.00000,1,  100.0,   160.700,     0.000,   1,1.0000,    ,      ,    ,      ,    ,      ,1, 1.0000
  1040,'2 ',   325.170,     0.000,     0.000,     0.000,1.00000,     0,  1354.875, 0.00000E+0, 1.00000E+0, 0.00000E+0, 0.00000E+0,1.00000,1,  100.0,  1083.900,     0.000,   1,1.0000,    ,      ,    ,      ,    ,      ,1, 1.0000
  1042,'1 ',     0.000,     0.000,    25.960,   -17.550,1.00000,     0,   146.280, 0.00000E+0, 1.00000E+0, 0.00000E+0, 0.00000E+0,1.00000,0,  100.0,   121.900,    36.570,   1,1.0000,    ,      ,    ,      ,    ,      ,1, 1.0000
  1043,'1 ',    44.100,    -6.085,    12.520,    -8.470,1.00000,     0,    70.560, 0.00000E+0, 1.00000E+0, 0.00000E+0, 0.00000E+0,1.00000,1,  100.0,    58.800,    17.640,   1,1.0000,    ,      ,    ,      ,    ,      ,1, 1.0000
  1044,'1 ',    90.720,    -3.499,   118.030,  -118.030,1.00000,     0,   378.000, 0.00000E+0, 1.00000E+0, 0.00000E+0, 0.00000E+0,1.00000,1,  100.0,   302.400,     0.000,   1,1.0000,    ,      ,    ,      ,    ,      ,1, 1.0000
  1046,'1 ',   457.350,  -112.457,   595.031,  -595.031,1.00000,     0,  1905.625, 0.00000E+0, 1.00000E+0, 0.00000E+0, 0.00000E+0,1.00000,1,  100.0,  1524.500,     0.000,   1,1.0000,    ,      ,    ,      ,    ,      ,1, 1.0000
  1048,'1 ',     0.000,     0.000,   165.530,   -36.100,1.00000,     0,   390.240, 0.00000E+0, 3.50000E-1, 0.00000E+0, 0.00000E+0,1.00000,0,  100.0,   325.200,    97.560,   1,1.0000
  1049,'1 ',     0.000,     0.000,   165.530,   -36.100,1.00000,     0,   390.240, 0.00000E+0, 2.30000E-1, 0.00000E+0, 0.00000E+0,1.00000,0,  100.0,   325.200,    97.560,   1,1.0000
  1050,'1 ',    41.635,    15.460,    45.500,    -9.920,1.00000,     0,   107.280, 0.00000E+0, 1.50000E-1, 0.00000E+0, 0.00000E+0,1.00000,1,  100.0,    89.400,     0.000,   1,1.0000
  1051,'1 ',    27.190,     6.114,    45.500,    -9.920,1.00000,     0,   107.280, 0.00000E+0, 3.10000E-1, 0.00000E+0, 0.00000E+0,1.00000,0,  100.0,    89.400,    26.820,   1,1.0000
  1052,'1 ',    27.190,     9.914,    45.500,    -9.920,1.00000,     0,   107.280, 0.00000E+0, 2.60000E-1, 0.00000E+0, 0.00000E+0,1.00000,0,  100.0,    89.400,    26.820,   1,1.0000
  1053,'1 ',     0.000,     0.000,    91.010,   -19.850,1.00000,     0,   214.560, 0.00000E+0, 2.80000E-1, 0.00000E+0, 0.00000E+0,1.00000,0,  100.0,   178.800,    53.640,   1,1.0000
  1055,'1 ',    74.220,     0.532,    96.563,   -96.563,1.00000,     0,   309.250, 0.00000E+0, 1.00000E+0, 0.00000E+0, 0.00000E+0,1.00000,1,  100.0,   247.400,     0.000,   1,1.0000,    ,      ,    ,      ,    ,      ,1, 1.0000
  1057,'1 ',     0.000,     0.000,    25.560,   -17.280,1.00000,     0,   144.000, 0.00000E+0, 1.00000E+0, 0.00000E+0, 0.00000E+0,1.00000,0,  100.0,   120.000,    36.000,   1,1.0000,    ,      ,    ,      ,    ,      ,1, 1.0000
  1059,'1 ',     0.000,     0.000,     2.850,    -0.620,1.04000,     0,     6.720, 0.00000E+0, 3.10000E-1, 0.00000E+0, 0.00000E+0,1.00000,0,  100.0,     5.600,     1.680,   1,1.0000
  1060,'1 ',     0.000,     0.000,     1.020,    -0.220,1.04000,     0,     2.400, 0.00000E+0, 1.80000E-1, 0.00000E+0, 0.00000E+0,1.00000,0,  100.0,     2.000,     0.600,   1,1.0000
  1061,'1 ',    35.001,   -30.625,    45.536,   -45.536,1.00000,     0,   145.833, 0.00000E+0, 1.00000E+0, 0.00000E+0, 0.00000E+0,1.00000,1,  100.0,   116.667,     0.000,   1,1.0000,    ,      ,    ,      ,    ,      ,1, 1.0000
  1062,'1 ',     0.000,     0.000,     0.000,     0.000,1.01000,     0,     1.800, 0.00000E+0, 1.00000E+0, 0.00000E+0, 0.00000E+0,1.00000,0,  100.0,     1.500,     0.450,   1,1.0000,    ,      ,    ,      ,    ,      ,1, 1.0000
  1062,'2 ',    35.001,     8.365,    45.536,   -45.536,1.01000,     0,   145.833, 0.00000E+0, 1.00000E+0, 0.00000E+0, 0.00000E+0,1.00000,1,  100.0,   116.667,     0.000,   1,1.0000,    ,      ,    ,      ,    ,      ,1, 1.0000
  1063,'1 ',     0.000,     0.000,     0.000,     0.000,1.01000,     0,   276.000, 0.00000E+0, 1.00000E+0, 0.00000E+0, 0.00000E+0,1.00000,0,  100.0,   230.000,    69.000,   1,1.0000,    ,      ,    ,      ,    ,      ,1, 1.0000
  1063,'2 ',    35.001,     8.412,    45.536,   -45.536,1.01000,     0,   145.833, 0.00000E+0, 1.00000E+0, 0.00000E+0, 0.00000E+0,1.00000,1,  100.0,   116.667,     0.000,   1,1.0000,    ,      ,    ,      ,    ,      ,1, 1.0000
  1066,'1 ',   106.880,   -10.148,    30.350,   -20.520,1.00000,     0,   171.000, 0.00000E+0, 1.00000E+0, 0.00000E+0, 0.00000E+0,1.00000,1,  100.0,   142.500,    42.750,   1,1.0000,    ,      ,    ,      ,    ,      ,1, 1.0000
  1070,'1 ',   120.380,    34.190,    34.190,   -23.110,1.04000,     0,   192.600, 0.00000E+0, 1.00000E+0, 0.00000E+0, 0.00000E+0,1.00000,1,  100.0,   160.500,    48.150,   1,1.0000,    ,      ,    ,      ,    ,      ,1, 1.0000
  1072,'1 ',    74.546,    83.319,    97.800,   -21.330,1.01000,     0,   230.560, 0.00000E+0, 2.90000E-1, 0.00000E+0, 0.00000E+0,1.00000,1,  100.0,   192.130,     0.000,   1,1.0000
  1073,'1 ',    74.546,    51.432,    97.800,   -21.330,1.01000,     0,   230.560, 0.00000E+0, 3.10000E-1, 0.00000E+0, 0.00000E+0,1.00000,1,  100.0,   192.130,     0.000,   1,1.0000
  1074,'1 ',   160.365,    42.658,    97.800,   -21.330,1.01000,     0,   230.560, 0.00000E+0, 4.00000E-1, 0.00000E+0, 0.00000E+0,1.00000,0,  100.0,   192.130,    57.640,   1,1.0000
  1075,'1 ',   160.365,    54.032,    97.800,   -21.330,1.01000,     0,   230.560, 0.00000E+0, 2.70000E-1, 0.00000E+0, 0.00000E+0,1.00000,0,  100.0,   192.130,    57.640,   1,1.0000
  1076,'1 ',     0.000,     0.000,    97.800,   -21.330,1.01000,     0,   230.560, 0.00000E+0, 1.30000E-1, 0.00000E+0, 0.00000E+0,1.00000,0,  100.0,   192.130,    57.640,   1,1.0000
  1077,'1 ',     0.000,     0.000,    97.800,   -21.330,1.01000,     0,   230.560, 0.00000E+0, 3.90000E-1, 0.00000E+0, 0.00000E+0,1.00000,0,  100.0,   192.130,    57.640,   1,1.0000
  1078,'1 ',   160.365,    28.512,    48.610,   -10.600,1.01000,     0,   114.600, 0.00000E+0, 1.20000E-1, 0.00000E+0, 0.00000E+0,1.00000,0,  100.0,    95.500,    28.650,   1,1.0000
  1079,'1 ',   160.365,    48.610,    48.610,   -10.600,1.01000,     0,   114.600, 0.00000E+0, 4.40000E-1, 0.00000E+0, 0.00000E+0,1.00000,0,  100.0,    95.500,    28.650,   1,1.0000
  1080,'1 ',   160.365,    25.986,    48.610,   -10.600,1.01000,     0,   114.600, 0.00000E+0, 1.30000E-1, 0.00000E+0, 0.00000E+0,1.00000,0,  100.0,    95.500,    28.650,   1,1.0000
  1081,'1 ',     0.000,     0.000,   145.830,   -31.800,1.01000,     0,   343.800, 0.00000E+0, 1.50000E-1, 0.00000E+0, 0.00000E+0,1.00000,0,  100.0,   286.500,    85.950,   1,1.0000
  1082,'1 ',   112.500,   -21.600,    31.950,   -21.600,1.00000,     0,   180.000, 0.00000E+0, 1.00000E+0, 0.00000E+0, 0.00000E+0,1.00000,1,  100.0,   150.000,    45.000,   1,1.0000,    ,      ,    ,      ,    ,      ,1, 1.0000
  1083,'1 ',    57.510,   -74.823,    74.823,   -74.823,1.00000,     0,   239.625, 0.00000E+0, 1.00000E+0, 0.00000E+0, 0.00000E+0,1.00000,1,  100.0,   191.700,     0.000,   1,1.0000,    ,      ,    ,      ,    ,      ,1, 1.0000
  1083,'2 ',   478.695,     0.000,     0.000,     0.000,1.00000,     0,  1994.563, 0.00000E+0, 1.00000E+0, 0.00000E+0, 0.00000E+0,1.00000,1,  100.0,  1595.650,     0.000,   1,1.0000,    ,      ,    ,      ,    ,      ,1, 1.0000
  1084,'1 ',    86.620,    24.600,    24.600,   -16.630,1.04000,     0,   138.600, 0.00000E+0, 1.00000E+0, 0.00000E+0, 0.00000E+0,1.00000,1,  100.0,   115.500,    34.650,   1,1.0000,    ,      ,    ,      ,    ,      ,1, 1.0000
  1085,'1 ',    45.780,   -11.704,    59.562,   -59.562,1.00000,     0,   190.750, 0.00000E+0, 1.00000E+0, 0.00000E+0, 0.00000E+0,1.00000,1,  100.0,   152.600,     0.000,   1,1.0000,    ,      ,    ,      ,    ,      ,1, 1.0000
  1085,'2 ',    75.897,     0.000,     0.000,     0.000,1.00000,     0,   316.237, 0.00000E+0, 1.00000E+0, 0.00000E+0, 0.00000E+0,1.00000,1,  100.0,   252.990,     0.000,   1,1.0000,    ,      ,    ,      ,    ,      ,1, 1.0000
  1086,'1 ',    30.000,     0.000,     0.000,     0.000,1.00000,     0,   125.000, 0.00000E+0, 1.00000E+0, 0.00000E+0, 0.00000E+0,1.00000,1,  100.0,   100.000,     0.000,   1,1.0000,    ,      ,    ,      ,    ,      ,1, 1.0000
  1088,'1 ',    56.250,     2.490,    15.970,   -10.800,1.00000,     0,    90.000, 0.00000E+0, 1.00000E+0, 0.00000E+0, 0.00000E+0,1.00000,1,  100.0,    75.000,    22.500,   1,1.0000,    ,      ,    ,      ,    ,      ,1, 1.0000
  1089,'1 ',    63.360,   -27.139,    82.434,   -82.434,1.00000,     0,   264.000, 0.00000E+0, 1.00000E+0, 0.00000E+0, 0.00000E+0,1.00000,1,  100.0,   211.200,     0.000,   1,1.0000,    ,      ,    ,      ,    ,      ,1, 1.0000
  1089,'2 ',    45.480,     0.000,     0.000,     0.000,1.00000,     0,   189.500, 0.00000E+0, 1.00000E+0, 0.00000E+0, 0.00000E+0,1.00000,1,  100.0,   151.600,     0.000,   1,1.0000,    ,      ,    ,      ,    ,      ,1, 1.0000
  1090,'1 ',    48.929,    32.480,    32.480,   -21.960,1.02000,     0,   183.000, 0.00000E+0, 1.00000E+0, 0.00000E+0, 0.00000E+0,1.00000,1,  100.0,   152.500,    45.750,   1,1.0000
  1090,'2 ',    11.550,     7.670,     7.670,    -5.180,1.02000,     0,    43.200, 0.00000E+0, 1.00000E+0, 0.00000E+0, 0.00000E+0,1.00000,1,  100.0,    36.000,    10.800,   1,1.0000
  2004,'1 ',     0.000,     0.000,   199.430,   -43.490,1.02000,     0,   470.160, 0.00000E+0, 3.90000E-1, 0.00000E+0, 0.00000E+0,1.00000,0,  100.0,   391.800,   117.540,   1,1.0000
  2005,'1 ',     0.000,     0.000,   199.430,   -43.490,1.02000,     0,   470.160, 0.00000E+0, 2.30000E-1, 0.00000E+0, 0.00000E+0,1.00000,0,  100.0,   391.800,   117.540,   1,1.0000
  2006,'1 ',     0.000,     0.000,   199.430,   -43.490,1.02000,     0,   470.160, 0.00000E+0, 4.70000E-1, 0.00000E+0, 0.00000E+0,1.00000,0,  100.0,   391.800,   117.540,   1,1.0000
  2008,'1 ',    72.000,     0.000,     0.000,     0.000,1.00000,     0,   300.000, 0.00000E+0, 1.00000E+0, 0.00000E+0, 0.00000E+0,1.00000,1,  100.0,   240.000,     0.000,   1,1.0000,    ,      ,    ,      ,    ,      ,1, 1.0000
  2010,'1 ',   105.090,   -88.382,   136.726,  -136.726,1.00000,     0,   437.875, 0.00000E+0, 1.00000E+0, 0.00000E+0, 0.00000E+0,1.00000,1,  100.0,   350.300,     0.000,   1,1.0000,    ,      ,    ,      ,    ,      ,1, 1.0000
  2011,'1 ',     5.751,    -7.481,     7.481,    -7.481,1.00000,     0,    23.958, 0.00000E+0, 1.00000E+0, 0.00000E+0, 0.00000E+0,1.00000,1,  100.0,    19.167,     0.000,   1,1.0000,    ,      ,    ,      ,    ,      ,1, 1.0000
  2012,'1 ',     5.751,     7.481,     7.481,     7.481,1.00000,     0,    23.958, 0.00000E+0, 1.00000E+0, 0.00000E+0, 0.00000E+0,1.00000,1,  100.0,    19.167,     0.000,   1,1.0000,    ,      ,    ,      ,    ,      ,1, 1.0000
  2013,'1 ',   150.450,   -28.890,    42.730,   -28.890,1.00000,     0,   240.720, 0.00000E+0, 1.00000E+0, 0.00000E+0, 0.00000E+0,1.00000,1,  100.0,   200.600,    60.180,   1,1.0000,    ,      ,    ,      ,    ,      ,1, 1.0000
  2013,'2 ',     5.751,    -7.481,     7.481,    -7.481,1.00000,     0,    23.958, 0.00000E+0, 1.00000E+0, 0.00000E+0, 0.00000E+0,1.00000,1,  100.0,    19.167,     0.000,   1,1.0000,    ,      ,    ,      ,    ,      ,1, 1.0000
  2016,'1 ',     6.090,     0.000,     0.000,     0.000,1.00000,     0,    25.375, 0.00000E+0, 1.00000E+0, 0.00000E+0, 0.00000E+0,1.00000,1,  100.0,    20.300,     0.000,   1,1.0000,    ,      ,    ,      ,    ,      ,1, 1.0000
  2019,'1 ',     0.000,     0.000,    46.430,   -31.390,1.04000,     0,   261.600, 0.00000E+0, 1.00000E+0, 0.00000E+0, 0.00000E+0,1.00000,0,  100.0,   218.000,    65.400,   1,1.0000,    ,      ,    ,      ,    ,      ,1, 1.0000
  2023,'1 ',    25.340,    -9.250,    42.420,    -9.250,1.02000,     0,   100.000, 0.00000E+0, 1.40000E-1, 0.00000E+0, 0.00000E+0,1.00000,0,  100.0,    83.330,    25.000,   1,1.0000
  2024,'1 ',     4.824,   -18.500,    84.830,   -18.500,1.02000,     0,   200.000, 0.00000E+0, 3.10000E-1, 0.00000E+0, 0.00000E+0,1.00000,0,  100.0,   166.670,     0.000,   1,1.0000
  2029,'1 ',    44.970,   -19.370,    58.508,   -58.508,1.00000,     0,   187.375, 0.00000E+0, 1.00000E+0, 0.00000E+0, 0.00000E+0,1.00000,1,  100.0,   149.900,     0.000,   1,1.0000,    ,      ,    ,      ,    ,      ,1, 1.0000
  2029,'2 ',   288.510,   -19.370,   375.363,  -375.363,1.00000,     0,  1202.125, 0.00000E+0, 1.00000E+0, 0.00000E+0, 0.00000E+0,1.00000,1,  100.0,   961.700,     0.000,   1,1.0000,    ,      ,    ,      ,    ,      ,1, 1.0000
  2029,'3 ',   150.600,     0.000,     0.000,     0.000,1.00000,     0,   627.500, 0.00000E+0, 1.00000E+0, 0.00000E+0, 0.00000E+0,1.00000,1,  100.0,   502.000,     0.000,   1,1.0000,    ,      ,    ,      ,    ,      ,1, 1.0000
  2035,'1 ',   241.320,    -8.861,   313.967,  -313.967,1.00000,     0,  1005.500, 0.00000E+0, 1.00000E+0, 0.00000E+0, 0.00000E+0,1.00000,1,  100.0,   804.400,     0.000,   1,1.0000,    ,      ,    ,      ,    ,      ,1, 1.0000
  2041,'1 ',    63.015,   -31.734,    81.985,   -81.985,1.00000,     0,   262.563, 0.00000E+0, 1.00000E+0, 0.00000E+0, 0.00000E+0,1.00000,1,  100.0,   210.050,     0.000,   1,1.0000,    ,      ,    ,      ,    ,      ,1, 1.0000
  2041,'2 ',    84.765,   -31.734,   110.283,  -110.283,1.00000,     0,   353.188, 0.00000E+0, 1.00000E+0, 0.00000E+0, 0.00000E+0,1.00000,1,  100.0,   282.550,     0.000,   1,1.0000,    ,      ,    ,      ,    ,      ,1, 1.0000
  2041,'3 ',    34.560,   -31.734,    44.964,   -44.964,1.00000,     0,   144.000, 0.00000E+0, 1.00000E+0, 0.00000E+0, 0.00000E+0,1.00000,1,  100.0,   115.200,     0.000,   1,1.0000,    ,      ,    ,      ,    ,      ,1, 1.0000
  2042,'1 ',    59.700,     9.870,    16.950,   -11.460,1.01000,     0,    95.520, 0.00000E+0, 1.00000E+0, 0.00000E+0, 0.00000E+0,1.00000,1,  100.0,    79.600,    23.880,   1,1.0000,    ,      ,    ,      ,    ,      ,1, 1.0000
  2042,'2 ',    63.015,     9.870,    81.985,   -81.985,1.01000,     0,   262.563, 0.00000E+0, 1.00000E+0, 0.00000E+0, 0.00000E+0,1.00000,1,  100.0,   210.050,     0.000,   1,1.0000,    ,      ,    ,      ,    ,      ,1, 1.0000
  2042,'3 ',    84.765,     9.870,   110.283,  -110.283,1.01000,     0,   353.188, 0.00000E+0, 1.00000E+0, 0.00000E+0, 0.00000E+0,1.00000,1,  100.0,   282.550,     0.000,   1,1.0000,    ,      ,    ,      ,    ,      ,1, 1.0000
  2042,'4 ',    34.560,     9.870,    44.964,   -44.964,1.01000,     0,   144.000, 0.00000E+0, 1.00000E+0, 0.00000E+0, 0.00000E+0,1.00000,1,  100.0,   115.200,     0.000,   1,1.0000,    ,      ,    ,      ,    ,      ,1, 1.0000
...